Circuit: * C:\Users\rasou\Desktop\DLD lab\Lab 1\Part 1\1.2\Draft1.asc

Direct Newton iteration for .op point succeeded.

Date: Tue Aug 11 11:20:36 2020
Total elapsed time: 0.269 seconds.

tnom = 27
temp = 27
method = modified trap
totiter = 23050
traniter = 23042
tranpoints = 10629
accept = 10482
rejected = 147
matrix size = 14
fillins = 0
solver = Normal
Matrix Compiler1: 384 bytes object code size  0.1/0.1/[0.1]
Matrix Compiler2: 776 bytes object code size  0.1/0.1/[0.1]

